Circuit: * C:\Users\Akif\Documents\LTspiceXVII\CMOS_inv\CMOS_inv.asc

WARNING: Node N002 is floating.
WARNING: Node N001 is floating.

WARNING: Less than two connections to node N002.  This node is used by M1.
WARNING: Less than two connections to node N001.  This node is used by M2.
Warning: toxe, toxp and dtox all given and toxe != toxp + dtox; dtox ignored.
Direct Newton iteration for .op point succeeded.

Date: Thu Nov 21 21:55:33 2024
Total elapsed time: 0.349 seconds.

tnom = 27
temp = 27
method = modified trap
totiter = 118530
traniter = 118521
tranpoints = 42516
accept = 32464
rejected = 10052
matrix size = 15
fillins = 2
solver = Normal
Matrix Compiler1: 1.41 KB object code size  0.2/0.1/[0.1]
Matrix Compiler2: 1.59 KB object code size  0.1/0.1/[0.1]

