Circuit: * C:\Users\Akif\Documents\LTspiceXVII\SPI_Waveform_test\SPI_waveform_test.asc

Chip_select: Removing PWL point (1.9e-006,5)
Chip_select: Removing PWL point (3.8e-006,5)
Chip_select: Removing PWL point (5.7e-006,5)
Sck: Removing PWL point (1.9e-006,5)
Sck: Removing PWL point (3.8e-006,5)
Sck: Removing PWL point (5.7e-006,5)
Mosi: Removing PWL point (1.9e-006,5)
Mosi: Removing PWL point (3.8e-006,5)
Mosi: Removing PWL point (5.7e-006,5)
WARNING: Less than two connections to node MOSI.  This node is used by V§MOSI.
WARNING: Less than two connections to node SCK.  This node is used by V§SCK.
WARNING: Less than two connections to node CHIP_SELECT.  This node is used by V§CHIP_SELECT.
Direct Newton iteration for .op point succeeded.

Date: Fri Dec 20 23:51:24 2024
Total elapsed time: 0.054 seconds.

tnom = 27
temp = 27
method = modified trap
totiter = 3977
traniter = 3974
tranpoints = 1988
accept = 1988
rejected = 0
matrix size = 12
fillins = 0
solver = Normal
Matrix Compiler1: 212 bytes object code size  0.0/0.0/[0.0]
Matrix Compiler2: 574 bytes object code size  0.0/0.1/[0.0]

